[General]
sim-time-limit = 1h
network = MG1



**.lambda = ${lambda = 2, 4, 6, 8}
**.sleepCycle = ${Tc = 20, 40, 80, 160, 320, 640,1280}
**.alpha = 2
**.lowerBound = 0.05
**.higherBound = 99

